%nprocshared=2
%mem=2GB
%chk=cis_dce_rhf.chk
#p opt freq rhf/6-311g(d,p)

Aufgabe2 cis_HF 6-331g

0 1
 C                  0.00000000    0.67760000   -1.02398339
 C                  0.00000000   -0.67760000   -1.02398339
 H                 -0.00000000    1.21260000   -1.95063057
 H                  0.00000000   -1.21260000   -1.95063057
 Cl                 0.00000000    1.55760000    0.50022132
 Cl                 0.00000000   -1.55760000    0.50022132

