%nprocshared=2
%mem=2GB
%chk=trans_dce_rhf.chk
#p opt freq hf/6-311g(d,p)

Aufgabe 2 HF trans

0 1
 C                 -0.50268696    0.45436503    0.00000000
 C                  0.50268696   -0.45436503    0.00000000
 H                 -0.27822039    1.50055562    0.00000000
 H                  0.27822039   -1.50055562    0.00000000
 Cl                 2.17758342    0.08630293    0.00000000
 Cl                -2.17758342   -0.08630293    0.00000000

