%nprocshared=10
%mem=10GB
#p irc=(maxpoints=20,calcall) rhf/aug-cc-pvdz

A5 Teil 4

-1 1
 C                 -0.71331600    0.01620600   -0.20840100
 H                 -0.58913100   -0.86509000   -0.80068000
 H                 -0.59006900    0.98014100   -0.65397700
 H                 -1.04040300   -0.06462300    0.80618200
 Br                 1.67736400   -0.03810900    0.49005600
 Cl                -3.07107300    0.06977300   -0.89724000

