%nprocshared=12
%mem=12GB
#p opt=(modredundant,calcall) rhf/aug-cc-pvdz nosymm

A5 Teil 1

-1 1
 C                 -1.37064592   -0.27472692    0.33976323
 H                 -1.01399149   -1.28353693    0.33976323
 H                 -1.01397308    0.22967127   -0.53388828
 H                 -2.44064592   -0.27471374    0.33976323
 Br                -0.73396823    0.62564742    1.89927199
 Cl                -2.32578199   -1.70863120   -2.11617521

B 6 1 S 17 -0.050000

