%nprocshared=8
%mem=8GB
#p opt freq rhf/aug-cc-pvdz

Aufgabe 5 - Teil 3 -C

0 1
 C                 -5.67717956    2.14285711    0.00000000
 H                 -5.32052514    1.13404711    0.00000000
 H                 -5.32050672    2.64725530   -0.87365150
 H                 -6.74717956    2.14287029    0.00000000
 Cl                -5.09050274    2.97252142    1.43703425

